96
# CELL(abcABC):   9.865916 9.865916 9.865916  90.00000    90.00000    90.00000  Step:        5120  Bead:       0 positions{angstrom}  cell{angstrom}
       O -7.79487e-01 -3.74296e+00 -2.10136e+00
       H  5.94789e-02 -3.45848e+00 -2.44656e+00
       H -1.43642e+00 -4.02995e+00 -2.82863e+00
       O -3.80733e-01  7.29146e-01 -1.96576e+00
       H -6.26380e-01  1.36288e+00 -2.59311e+00
       H  1.75026e-01  2.02345e-01 -2.41688e+00
       O -2.58666e+00 -4.26193e+00  3.78448e+00
       H -2.76678e+00 -5.12401e+00  3.41799e+00
       H -2.95300e+00 -3.51079e+00  3.36192e+00
       O -3.58235e+00  2.81235e+00 -2.50842e-01
       H -4.40604e+00  3.32434e+00 -2.88858e-01
       H -2.85747e+00  3.38971e+00 -4.31660e-01
       O -3.30592e+00 -1.87776e+00  2.75963e+00
       H -2.95586e+00 -2.09262e+00  1.91452e+00
       H -4.25201e+00 -1.95426e+00  2.71999e+00
       O  1.86355e+00  6.47914e+00  2.66457e+00
       H  1.03340e+00  6.20999e+00  2.28387e+00
       H  1.58120e+00  7.08220e+00  3.41410e+00
       O  3.61225e-01  4.75076e+00 -4.73767e+00
       H  1.23941e+00  4.75186e+00 -5.19157e+00
       H  7.92374e-02  5.66798e+00 -4.66720e+00
       O -5.38119e+00  4.59176e+00 -3.91941e+00
       H -4.54514e+00  5.02244e+00 -3.82532e+00
       H -5.59575e+00  4.41493e+00 -3.04569e+00
       O -3.09479e+00  3.44980e+00  2.44433e+00
       H -3.35523e+00  3.17247e+00  1.55847e+00
       H -2.82121e+00  2.61449e+00  2.76831e+00
       O -1.14063e+00  2.18066e+00 -3.99268e+00
       H -7.23886e-01  1.74974e+00 -4.77728e+00
       H -6.29454e-01  3.02135e+00 -3.88583e+00
       O  4.34294e+00 -3.18496e+00  8.75093e+00
       H  5.03181e+00 -2.77143e+00  8.19620e+00
       H  4.07596e+00 -2.46677e+00  9.32790e+00
       O -2.97534e+00 -4.11053e+00  6.47614e+00
       H -3.37064e+00 -3.28376e+00  6.45630e+00
       H -2.80466e+00 -4.35438e+00  5.56913e+00
       O -5.82368e-01 -4.49175e+00  1.92936e+00
       H -9.12238e-01 -3.82049e+00  1.24878e+00
       H -1.30166e+00 -4.58382e+00  2.58472e+00
       O  2.84708e+00  4.19635e+00  3.62698e+00
       H  3.73225e+00  4.21823e+00  3.92288e+00
       H  2.47076e+00  5.04517e+00  3.23021e+00
       O  7.28153e+00 -8.79752e-02 -3.48091e-01
       H  7.80694e+00  3.59272e-01 -1.01379e+00
       H  7.05289e+00  7.06265e-01  1.54069e-01
       O  1.34813e+00  2.02128e+00  2.58333e+00
       H  1.89970e+00  2.79706e+00  2.76635e+00
       H  1.15962e+00  2.07153e+00  1.67332e+00
       O -1.09090e+00  4.19322e+00 -4.20171e-01
       H -1.12173e+00  4.46828e+00  5.00373e-01
       H -1.08775e+00  4.97520e+00 -9.19116e-01
       O  4.05783e+00  1.60275e+00  5.43977e+00
       H  3.77971e+00  8.54369e-01  4.88435e+00
       H  3.60978e+00  2.35374e+00  5.13026e+00
       O  2.43776e+00 -4.99482e-02 -2.62072e+00
       H  2.86338e+00  7.11211e-01 -2.93717e+00
       H  2.97253e+00 -9.94903e-02 -1.85240e+00
       O  4.19163e+00 -2.28337e+00  2.65931e+00
       H  3.49022e+00 -2.92189e+00  2.61029e+00
       H  3.73537e+00 -1.55872e+00  3.12926e+00
       O -1.84748e+00 -2.66476e+00  2.20004e-01
       H -1.72968e+00 -3.08233e+00 -6.27425e-01
       H -2.10385e+00 -1.76017e+00  9.73129e-02
       O  1.92287e+00  4.27244e+00 -1.67407e+00
       H  1.42634e+00  4.25473e+00 -2.51279e+00
       H  1.78700e+00  3.41107e+00 -1.26398e+00
       O  6.28409e+00 -1.73525e+00 -2.82764e+00
       H  6.32088e+00 -1.00193e+00 -3.42952e+00
       H  6.46909e+00 -1.41869e+00 -1.98218e+00
       O  3.96284e+00 -7.23149e-01  2.62377e-01
       H  3.95229e+00 -1.25779e+00  1.05422e+00
       H  4.87913e+00 -4.01939e-01  1.95048e-01
       O  9.24235e-01  2.23061e+00 -8.61337e-02
       H  5.46549e-01  1.54775e+00 -6.38430e-01
       H  2.12575e-01  2.87202e+00 -1.31574e-01
       O  1.64438e+00 -2.72311e+00 -2.77752e+00
       H  2.38185e+00 -3.30116e+00 -2.65724e+00
       H  1.95524e+00 -1.77900e+00 -2.71436e+00
       O  1.01467e+00  8.09645e+00  4.79515e+00
       H  1.40914e+00  7.93303e+00  5.67457e+00
       H  3.79807e-01  8.78199e+00  4.90422e+00
       O  6.63510e+00  6.93406e-01 -4.01819e+00
       H  5.82622e+00  1.14584e+00 -4.34895e+00
       H  7.22563e+00  1.38179e+00 -3.64324e+00
       O  2.73534e+00 -3.36928e-01  3.71781e+00
       H  2.02189e+00 -8.16433e-01  4.17998e+00
       H  2.32360e+00  4.36506e-01  3.23950e+00
       O -3.08085e-01  2.74165e-01  4.50852e+00
       H -1.24172e+00  4.29215e-01  4.35617e+00
       H  1.60646e-02  5.09220e-01  3.66907e+00
       O  4.35545e+00  4.27341e+00 -5.80197e-01
       H  4.55787e+00  5.20015e+00 -3.80796e-01
       H  3.45005e+00  4.26144e+00 -8.93148e-01
       O  7.26921e+00  8.39629e-01  3.52705e+00
       H  7.01019e+00  8.49805e-01  4.43944e+00
       H  7.12670e+00 -1.23490e-01  3.43914e+00
